ZINC000004204034
                    3D
 Schrodinger Suite 2021-4.
 26 27  0  0  1  0            999 V2000
    0.1090    0.1484   -0.0217 C   0  0  0  0  0  0
    1.5582    0.0687    0.1092 N   0  0  1  0  0  0
    2.0322    0.4563    1.4281 C   0  0  0  0  0  0
    3.4878   -0.0179    1.4588 C   0  0  2  0  0  0
    4.4843    1.0511    0.9723 C   0  0  0  0  0  0
    5.8929    0.4627    0.7862 C   0  0  0  0  0  0
    5.9140   -0.7536   -0.0334 N   0  0  1  0  0  0
    4.6338   -1.2947   -0.5043 C   0  0  0  0  0  0
    3.4988   -1.2751    0.5573 C   0  0  2  0  0  0
    2.0728   -1.2872   -0.0265 C   0  0  0  0  0  0
    3.7650   -0.2983    2.4766 H   0  0  0  0  0  0
    3.6144   -2.1557    1.1916 H   0  0  0  0  0  0
   -0.2278    1.1768    0.1142 H   0  0  0  0  0  0
   -0.3987   -0.4767    0.7147 H   0  0  0  0  0  0
   -0.2014   -0.1754   -1.0157 H   0  0  0  0  0  0
    1.9168    1.5302    1.5817 H   0  0  0  0  0  0
    1.4281    0.0018    2.2165 H   0  0  0  0  0  0
    4.1690    1.4506    0.0065 H   0  0  0  0  0  0
    4.4785    1.9197    1.6314 H   0  0  0  0  0  0
    6.5534    1.2019    0.3322 H   0  0  0  0  0  0
    6.3154    0.2082    1.7587 H   0  0  0  0  0  0
    6.5965   -0.6950   -0.7758 H   0  0  0  0  0  0
    4.3290   -0.7003   -1.3669 H   0  0  0  0  0  0
    4.7705   -2.3047   -0.8914 H   0  0  0  0  0  0
    1.4249   -1.9784    0.5173 H   0  0  0  0  0  0
    2.0282   -1.5980   -1.0715 H   0  0  0  0  0  0
  1  2  1  0  0  0
  1 13  1  0  0  0
  1 14  1  0  0  0
  1 15  1  0  0  0
  2 10  1  0  0  0
  2  3  1  0  0  0
  3  4  1  0  0  0
  3 16  1  0  0  0
  3 17  1  0  0  0
  4 11  1  0  0  0
  4  9  1  0  0  0
  4  5  1  0  0  0
  5  6  1  0  0  0
  5 18  1  0  0  0
  5 19  1  0  0  0
  6  7  1  0  0  0
  6 20  1  0  0  0
  6 21  1  0  0  0
  7  8  1  0  0  0
  7 22  1  0  0  0
  8  9  1  0  0  0
  8 23  1  0  0  0
  8 24  1  0  0  0
  9 12  1  0  0  0
  9 10  1  0  0  0
 10 25  1  0  0  0
 10 26  1  0  0  0
M  END
> <s_m_source_file>
zinc_200_425_001.smi

> <i_m_source_file_index>
1

> <i_lp_mmshare_version>
56137

> <s_lp_label>
1

> <i_f3d_flags>
0

> <s_epik_input>
W0NIM11OKFtDSDJdMSlbQ0gyXVtDQEhdKFtDQEhdMTIpW0NIMl1bTkhdW0NIMl1bQ0gyXTI=

> <s_epik_cmdline>
J2VwaWtfcHl0aG9uJywgJy1waHQnLCAnMi4wJywgJy1waCcsICc3LjAnLCAnLXJldGFpbl9pX2xhYicsICctcmV0YWluX3RfbGFiJywgJy10bicsICc4JywgJy1tYScsICcyMDAnLCAnLWltYWUnLCAnPGluZmlsZS5tYWU+JywgJy1vbWFlJywgJzxvdXRmaWxlLm1hZT4n

> <i_lp_orig_ion_str>
1

> <r_epik_Ionization_Penalty>
7.97156

> <r_epik_Ionization_Penalty_Charging>
0

> <r_epik_Ionization_Penalty_Neutral>
7.97156

> <r_epik_State_Penalty>
12.2834

> <r_epik_Charging_Adjusted_Penalty>
12.2834

> <i_epik_Tot_Q>
0

> <i_epik_Tot_abs_Q>
0

> <s_lp_Force_Field>
S-OPLS

> <r_lp_Energy>
9.18904

> <b_lp_Chiralities_Consistent>
1

> <s_lp_Variant>
ZINC000004204034-1

$$$$
ZINC000004204034
                    3D
 Schrodinger Suite 2021-4.
 27 28  0  0  1  0            999 V2000
   -0.0101    0.0245    0.0397 C   0  0  0  0  0  0
    1.4455   -0.0146   -0.0246 N   0  0  2  0  0  0
    1.9813    0.5561   -1.2504 C   0  0  0  0  0  0
    3.4455    0.0882   -1.3234 C   0  0  2  0  0  0
    3.9747   -0.1200   -2.7608 C   0  0  0  0  0  0
    3.3830   -1.3560   -3.4716 C   0  0  0  0  0  0
    3.4687   -2.6299   -2.6035 N   0  3  0  0  0  0
    4.0419   -2.4562   -1.1820 C   0  0  0  0  0  0
    3.4444   -1.2114   -0.4796 C   0  0  2  0  0  0
    1.9824   -1.3649   -0.0336 C   0  0  0  0  0  0
    4.0750    0.8295   -0.8269 H   0  0  0  0  0  0
    4.0394   -1.0365    0.4191 H   0  0  0  0  0  0
   -0.3643    1.0558    0.0183 H   0  0  0  0  0  0
   -0.3614   -0.4285    0.9675 H   0  0  0  0  0  0
   -0.4669   -0.5102   -0.7948 H   0  0  0  0  0  0
    1.3946    0.2411   -2.1158 H   0  0  0  0  0  0
    1.8847    1.6426   -1.2387 H   0  0  0  0  0  0
    3.7574    0.7650   -3.3605 H   0  0  0  0  0  0
    5.0624   -0.2045   -2.7395 H   0  0  0  0  0  0
    2.3195   -1.2376   -3.6804 H   0  0  0  0  0  0
    3.8996   -1.5893   -4.4030 H   0  0  0  0  0  0
    2.5359   -3.0091   -2.5213 H   0  0  0  0  0  0
    3.8195   -3.3892   -0.6623 H   0  0  0  0  0  0
    5.1211   -2.3704   -1.3172 H   0  0  0  0  0  0
    1.8820   -1.8291    0.9485 H   0  0  0  0  0  0
    1.4073   -2.0154   -0.6962 H   0  0  0  0  0  0
    4.0154   -3.3261   -3.0906 H   0  0  0  0  0  0
  1  2  1  0  0  0
  1 13  1  0  0  0
  1 14  1  0  0  0
  1 15  1  0  0  0
  2 10  1  0  0  0
  2  3  1  0  0  0
  3  4  1  0  0  0
  3 16  1  0  0  0
  3 17  1  0  0  0
  4 11  1  0  0  0
  4  9  1  0  0  0
  4  5  1  0  0  0
  5  6  1  0  0  0
  5 18  1  0  0  0
  5 19  1  0  0  0
  6  7  1  0  0  0
  6 20  1  0  0  0
  6 21  1  0  0  0
  7  8  1  0  0  0
  7 22  1  0  0  0
  7 27  1  0  0  0
  8  9  1  0  0  0
  8 23  1  0  0  0
  8 24  1  0  0  0
  9 12  1  0  0  0
  9 10  1  0  0  0
 10 25  1  0  0  0
 10 26  1  0  0  0
M  CHG  1   7   1
M  END
> <s_m_source_file>
zinc_200_425_001.smi

> <i_m_source_file_index>
1

> <i_lp_mmshare_version>
56137

> <s_lp_label>
1

> <i_f3d_flags>
0

> <s_epik_input>
W0NIM11OKFtDSDJdMSlbQ0gyXVtDQEhdKFtDQEhdMTIpW0NIMl1bTkhdW0NIMl1bQ0gyXTI=

> <s_epik_cmdline>
J2VwaWtfcHl0aG9uJywgJy1waHQnLCAnMi4wJywgJy1waCcsICc3LjAnLCAnLXJldGFpbl9pX2xhYicsICctcmV0YWluX3RfbGFiJywgJy10bicsICc4JywgJy1tYScsICcyMDAnLCAnLWltYWUnLCAnPGluZmlsZS5tYWU+JywgJy1vbWFlJywgJzxvdXRmaWxlLm1hZT4n

> <i_lp_orig_ion_str>
1

> <r_epik_Ionization_Penalty>
2.53022

> <r_epik_Ionization_Penalty_Charging>
0.000499453

> <r_epik_Ionization_Penalty_Neutral>
2.52972

> <r_epik_State_Penalty>
2.75342

> <r_epik_Charging_Adjusted_Penalty>
2.75392

> <i_epik_Tot_Q>
1

> <i_epik_Tot_abs_Q>
1

> <s_lp_Force_Field>
S-OPLS

> <r_lp_Energy>
13.215

> <b_lp_Chiralities_Consistent>
1

> <s_lp_Variant>
ZINC000004204034-2

$$$$
ZINC000004204034
                    3D
 Schrodinger Suite 2021-4.
 28 29  0  0  1  0            999 V2000
   -0.0768   -0.0217    0.0735 C   0  0  0  0  0  0
    1.4623    0.0204    0.0842 N   0  3  1  0  0  0
    2.0729    0.5662   -1.2168 C   0  0  0  0  0  0
    3.5010    0.9731   -0.8266 C   0  0  2  0  0  0
    4.5794   -0.0556   -1.2362 C   0  0  0  0  0  0
    5.9775    0.3239   -0.7014 C   0  0  0  0  0  0
    5.9425    0.6406    0.8138 N   0  3  0  0  0  0
    4.5683    0.4566    1.4932 C   0  0  0  0  0  0
    3.4802    1.2299    0.7019 C   0  0  2  0  0  0
    2.0475    0.9361    1.1724 C   0  0  0  0  0  0
    3.7415    1.9132   -1.3282 H   0  0  0  0  0  0
    3.6640    2.2945    0.8643 H   0  0  0  0  0  0
   -0.4474    0.9917   -0.0890 H   0  0  0  0  0  0
   -0.3888   -0.4137    1.0423 H   0  0  0  0  0  0
   -0.3688   -0.6918   -0.7362 H   0  0  0  0  0  0
    1.9853   -0.2089   -1.9802 H   0  0  0  0  0  0
    1.4592    1.4192   -1.5149 H   0  0  0  0  0  0
    4.3148   -1.0381   -0.8414 H   0  0  0  0  0  0
    4.5871   -0.1910   -2.3188 H   0  0  0  0  0  0
    6.7036   -0.4802   -0.8276 H   0  0  0  0  0  0
    6.3646    1.2295   -1.1701 H   0  0  0  0  0  0
    6.6270    0.0684    1.2890 H   0  0  0  0  0  0
    4.3932   -0.6205    1.5176 H   0  0  0  0  0  0
    4.6852    0.8160    2.5165 H   0  0  0  0  0  0
    1.4202    1.8302    1.1895 H   0  0  0  0  0  0
    1.9500    0.4202    2.1292 H   0  0  0  0  0  0
    1.7940   -0.9228    0.2326 H   0  0  0  0  0  0
    6.2344    1.5996    0.9426 H   0  0  0  0  0  0
  1  2  1  0  0  0
  1 13  1  0  0  0
  1 14  1  0  0  0
  1 15  1  0  0  0
  2 10  1  0  0  0
  2  3  1  0  0  0
  2 27  1  0  0  0
  3  4  1  0  0  0
  3 16  1  0  0  0
  3 17  1  0  0  0
  4 11  1  0  0  0
  4  9  1  0  0  0
  4  5  1  0  0  0
  5  6  1  0  0  0
  5 18  1  0  0  0
  5 19  1  0  0  0
  6  7  1  0  0  0
  6 20  1  0  0  0
  6 21  1  0  0  0
  7  8  1  0  0  0
  7 22  1  0  0  0
  7 28  1  0  0  0
  8  9  1  0  0  0
  8 23  1  0  0  0
  8 24  1  0  0  0
  9 12  1  0  0  0
  9 10  1  0  0  0
 10 25  1  0  0  0
 10 26  1  0  0  0
M  CHG  2   2   1   7   1
M  END
> <s_m_source_file>
zinc_200_425_001.smi

> <i_m_source_file_index>
1

> <i_lp_mmshare_version>
56137

> <s_lp_label>
1

> <i_f3d_flags>
0

> <s_epik_input>
W0NIM11OKFtDSDJdMSlbQ0gyXVtDQEhdKFtDQEhdMTIpW0NIMl1bTkhdW0NIMl1bQ0gyXTI=

> <s_epik_cmdline>
J2VwaWtfcHl0aG9uJywgJy1waHQnLCAnMi4wJywgJy1waCcsICc3LjAnLCAnLXJldGFpbl9pX2xhYicsICctcmV0YWluX3RfbGFiJywgJy10bicsICc4JywgJy1tYScsICcyMDAnLCAnLWltYWUnLCAnPGluZmlsZS5tYWU+JywgJy1vbWFlJywgJzxvdXRmaWxlLm1hZT4n

> <i_lp_orig_ion_str>
1

> <r_epik_Ionization_Penalty>
0.0112728

> <r_epik_Ionization_Penalty_Charging>
0.0112728

> <r_epik_Ionization_Penalty_Neutral>
0

> <r_epik_State_Penalty>
0.00795933

> <r_epik_Charging_Adjusted_Penalty>
0.0192321

> <i_epik_Tot_Q>
2

> <i_epik_Tot_abs_Q>
2

> <s_lp_Force_Field>
S-OPLS

> <r_lp_Energy>
31.6634

> <b_lp_Chiralities_Consistent>
1

> <s_lp_Variant>
ZINC000004204034-3

$$$$
ZINC000012358771
                    3D
 Schrodinger Suite 2021-4.
  9  8  0  0  1  0            999 V2000
   -0.6895    0.9899    0.0000 O   0  0  0  0  0  0
    0.0321   -0.0074   -0.0000 C   0  0  0  0  0  0
   -0.4487   -1.2837   -0.0000 O   0  0  0  0  0  0
    1.4736    0.0119    0.0000 C   0  0  0  0  0  0
    2.1772    1.1586    0.0000 C   0  0  0  0  0  0
    3.9425    1.1630    0.0000 Cl  0  0  0  0  0  0
   -1.4081   -1.3107   -0.0000 H   0  0  0  0  0  0
    1.9761   -0.9454    0.0000 H   0  0  0  0  0  0
    1.7319    2.1441    0.0000 H   0  0  0  0  0  0
  1  2  2  0  0  0
  2  3  1  0  0  0
  2  4  1  0  0  0
  3  7  1  0  0  0
  4  5  2  0  0  0
  4  8  1  0  0  0
  5  6  1  0  0  0
  5  9  1  0  0  0
M  END
> <s_m_source_file>
zinc_200_425_001.smi

> <i_m_source_file_index>
2

> <i_lp_mmshare_version>
56137

> <s_lp_label>
2

> <i_f3d_flags>
0

> <s_epik_input>
Tz1DKFtPSF0pL1tDSF09W0NIXS9DbA==

> <s_epik_cmdline>
J2VwaWtfcHl0aG9uJywgJy1waHQnLCAnMi4wJywgJy1waCcsICc3LjAnLCAnLXJldGFpbl9pX2xhYicsICctcmV0YWluX3RfbGFiJywgJy10bicsICc4JywgJy1tYScsICcyMDAnLCAnLWltYWUnLCAnPGluZmlsZS5tYWU+JywgJy1vbWFlJywgJzxvdXRmaWxlLm1hZT4n

> <i_lp_orig_ion_str>
1

> <r_epik_Ionization_Penalty>
4.46823

> <r_epik_Ionization_Penalty_Charging>
0

> <r_epik_Ionization_Penalty_Neutral>
4.46823

> <r_epik_State_Penalty>
4.76781

> <r_epik_Charging_Adjusted_Penalty>
4.76781

> <i_epik_Tot_Q>
0

> <i_epik_Tot_abs_Q>
0

> <s_lp_Force_Field>
S-OPLS

> <r_lp_Energy>
-1.59136

> <b_lp_Chiralities_Consistent>
1

> <s_lp_Variant>
ZINC000012358771-1

$$$$
ZINC000012358771
                    3D
 Schrodinger Suite 2021-4.
  8  7  0  0  1  0            999 V2000
   -0.5538    1.1551   -0.0000 O   0  0  0  0  0  0
   -0.0822   -0.0036    0.0000 C   0  0  0  0  0  0
   -0.6787   -1.1061    0.0000 O   0  5  0  0  0  0
    1.4672   -0.0436   -0.0000 C   0  0  0  0  0  0
    2.2170   -1.1637   -0.0000 C   0  0  0  0  0  0
    3.9818   -1.1030   -0.0000 Cl  0  0  0  0  0  0
    1.9963    0.8995   -0.0000 H   0  0  0  0  0  0
    1.8071   -2.1638   -0.0000 H   0  0  0  0  0  0
  1  2  2  0  0  0
  2  3  1  0  0  0
  2  4  1  0  0  0
  4  5  2  0  0  0
  4  7  1  0  0  0
  5  6  1  0  0  0
  5  8  1  0  0  0
M  CHG  1   3  -1
M  END
> <s_m_source_file>
zinc_200_425_001.smi

> <i_m_source_file_index>
2

> <i_lp_mmshare_version>
56137

> <s_lp_label>
2

> <i_f3d_flags>
0

> <s_epik_input>
Tz1DKFtPSF0pL1tDSF09W0NIXS9DbA==

> <s_epik_cmdline>
J2VwaWtfcHl0aG9uJywgJy1waHQnLCAnMi4wJywgJy1waCcsICc3LjAnLCAnLXJldGFpbl9pX2xhYicsICctcmV0YWluX3RfbGFiJywgJy10bicsICc4JywgJy1tYScsICcyMDAnLCAnLWltYWUnLCAnPGluZmlsZS5tYWU+JywgJy1vbWFlJywgJzxvdXRmaWxlLm1hZT4n

> <i_lp_orig_ion_str>
1

> <r_epik_Ionization_Penalty>
0.000314458

> <r_epik_Ionization_Penalty_Charging>
0.000314458

> <r_epik_Ionization_Penalty_Neutral>
0

> <r_epik_State_Penalty>
0.000189636

> <r_epik_Charging_Adjusted_Penalty>
0.000504094

> <i_epik_Tot_Q>
-1

> <i_epik_Tot_abs_Q>
1

> <s_lp_Force_Field>
S-OPLS

> <r_lp_Energy>
3.86458

> <b_lp_Chiralities_Consistent>
1

> <s_lp_Variant>
ZINC000012358771-2

$$$$
ZINC000012650194
                    3D
 Schrodinger Suite 2021-4.
 27 27  0  0  1  0            999 V2000
   -0.4772   -0.8050    1.2191 C   0  0  0  0  0  0
    0.0747   -0.0171    0.0113 C   0  0  2  0  0  0
    1.6202   -0.0028    0.0465 C   0  0  0  0  0  0
    2.1770    0.6307   -1.0885 O   0  0  0  0  0  0
   -0.5115    1.4196   -0.0854 C   0  0  0  0  0  0
   -1.9762    1.4628   -0.0961 N   0  0  0  0  0  0
   -2.5858    0.8915   -1.2906 C   0  0  0  0  0  0
   -4.0294    1.4009   -1.2930 C   0  0  0  0  0  0
   -3.9762    2.6837   -0.4589 C   0  0  0  0  0  0
   -2.4998    2.8210   -0.0817 C   0  0  0  0  0  0
   -0.2026   -0.5620   -0.8926 H   0  0  0  0  0  0
   -0.2475   -0.3031    2.1599 H   0  0  0  0  0  0
   -0.0517   -1.8080    1.2658 H   0  0  0  0  0  0
   -1.5597   -0.9222    1.1630 H   0  0  0  0  0  0
    1.9652    0.5375    0.9292 H   0  0  0  0  0  0
    2.0223   -1.0122    0.1448 H   0  0  0  0  0  0
    3.1336    0.6186   -1.0072 H   0  0  0  0  0  0
   -0.1432    2.0139    0.7525 H   0  0  0  0  0  0
   -0.1482    1.9060   -0.9927 H   0  0  0  0  0  0
   -2.0461    1.1628   -2.2002 H   0  0  0  0  0  0
   -2.5341   -0.1962   -1.2331 H   0  0  0  0  0  0
   -4.3728    1.5957   -2.3097 H   0  0  0  0  0  0
   -4.7056    0.6669   -0.8522 H   0  0  0  0  0  0
   -4.3190    3.5507   -1.0246 H   0  0  0  0  0  0
   -4.6009    2.6086    0.4324 H   0  0  0  0  0  0
   -2.3600    3.2415    0.9151 H   0  0  0  0  0  0
   -1.9532    3.4839   -0.7559 H   0  0  0  0  0  0
  1  2  1  0  0  0
  1 12  1  0  0  0
  1 13  1  0  0  0
  1 14  1  0  0  0
  2 11  1  0  0  0
  2  3  1  0  0  0
  2  5  1  0  0  0
  3  4  1  0  0  0
  3 15  1  0  0  0
  3 16  1  0  0  0
  4 17  1  0  0  0
  5  6  1  0  0  0
  5 18  1  0  0  0
  5 19  1  0  0  0
  6 10  1  0  0  0
  6  7  1  0  0  0
  7  8  1  0  0  0
  7 20  1  0  0  0
  7 21  1  0  0  0
  8  9  1  0  0  0
  8 22  1  0  0  0
  8 23  1  0  0  0
  9 10  1  0  0  0
  9 24  1  0  0  0
  9 25  1  0  0  0
 10 26  1  0  0  0
 10 27  1  0  0  0
M  END
> <s_m_source_file>
zinc_200_425_001.smi

> <i_m_source_file_index>
3

> <i_lp_mmshare_version>
56137

> <s_lp_label>
3

> <i_f3d_flags>
0

> <s_epik_input>
W09IXVtDSDJdW0NAQEhdKFtDSDNdKVtDSDJdTjFbQ0gyXVtDSDJdW0NIMl1bQ0gyXTE=

> <s_epik_cmdline>
J2VwaWtfcHl0aG9uJywgJy1waHQnLCAnMi4wJywgJy1waCcsICc3LjAnLCAnLXJldGFpbl9pX2xhYicsICctcmV0YWluX3RfbGFiJywgJy10bicsICc4JywgJy1tYScsICcyMDAnLCAnLWltYWUnLCAnPGluZmlsZS5tYWU+JywgJy1vbWFlJywgJzxvdXRmaWxlLm1hZT4n

> <i_lp_orig_ion_str>
1

> <r_epik_Ionization_Penalty>
4.4096

> <r_epik_Ionization_Penalty_Charging>
0

> <r_epik_Ionization_Penalty_Neutral>
4.4096

> <r_epik_State_Penalty>
4.70523

> <r_epik_Charging_Adjusted_Penalty>
4.70523

> <i_epik_Tot_Q>
0

> <i_epik_Tot_abs_Q>
0

> <s_lp_Force_Field>
S-OPLS

> <r_lp_Energy>
2.25041

> <b_lp_Chiralities_Consistent>
1

> <s_lp_Variant>
ZINC000012650194-1

$$$$
ZINC000012650194
                    3D
 Schrodinger Suite 2021-4.
 28 28  0  0  1  0            999 V2000
   -0.4067   -0.7773    1.2949 C   0  0  0  0  0  0
    0.0963   -0.0262    0.0428 C   0  0  2  0  0  0
    1.6419   -0.0181    0.0077 C   0  0  0  0  0  0
    2.1454    0.5894   -1.1656 O   0  0  0  0  0  0
   -0.4887    1.4077   -0.0740 C   0  0  0  0  0  0
   -2.0347    1.4127   -0.0550 N   0  3  0  0  0  0
   -2.6375    2.8272   -0.0368 C   0  0  0  0  0  0
   -4.0773    2.6391   -0.5176 C   0  0  0  0  0  0
   -4.1121    1.3299   -1.3111 C   0  0  0  0  0  0
   -2.6968    0.7490   -1.2758 C   0  0  0  0  0  0
   -0.2306   -0.5992   -0.8267 H   0  0  0  0  0  0
   -0.1457   -0.2451    2.2106 H   0  0  0  0  0  0
    0.0288   -1.7754    1.3590 H   0  0  0  0  0  0
   -1.4892   -0.9070    1.2838 H   0  0  0  0  0  0
    2.0296    0.5406    0.8608 H   0  0  0  0  0  0
    2.0449   -1.0267    0.1095 H   0  0  0  0  0  0
    3.1052    0.5719   -1.1320 H   0  0  0  0  0  0
   -0.1974    2.0318    0.7728 H   0  0  0  0  0  0
   -0.2041    1.9089   -1.0011 H   0  0  0  0  0  0
   -2.5240    3.2361    0.9679 H   0  0  0  0  0  0
   -2.0438    3.4215   -0.7342 H   0  0  0  0  0  0
   -4.7582    2.5926    0.3337 H   0  0  0  0  0  0
   -4.3907    3.4833   -1.1332 H   0  0  0  0  0  0
   -4.8213    0.6295   -0.8672 H   0  0  0  0  0  0
   -4.4322    1.4994   -2.3401 H   0  0  0  0  0  0
   -2.1056    1.0469   -2.1439 H   0  0  0  0  0  0
   -2.6391   -0.3333   -1.1552 H   0  0  0  0  0  0
   -2.3316    0.9267    0.7798 H   0  0  0  0  0  0
  1  2  1  0  0  0
  1 12  1  0  0  0
  1 13  1  0  0  0
  1 14  1  0  0  0
  2 11  1  0  0  0
  2  3  1  0  0  0
  2  5  1  0  0  0
  3  4  1  0  0  0
  3 15  1  0  0  0
  3 16  1  0  0  0
  4 17  1  0  0  0
  5  6  1  0  0  0
  5 18  1  0  0  0
  5 19  1  0  0  0
  6 10  1  0  0  0
  6  7  1  0  0  0
  6 28  1  0  0  0
  7  8  1  0  0  0
  7 20  1  0  0  0
  7 21  1  0  0  0
  8  9  1  0  0  0
  8 22  1  0  0  0
  8 23  1  0  0  0
  9 10  1  0  0  0
  9 24  1  0  0  0
  9 25  1  0  0  0
 10 26  1  0  0  0
 10 27  1  0  0  0
M  CHG  1   6   1
M  END
> <s_m_source_file>
zinc_200_425_001.smi

> <i_m_source_file_index>
3

> <i_lp_mmshare_version>
56137

> <s_lp_label>
3

> <i_f3d_flags>
0

> <s_epik_input>
W09IXVtDSDJdW0NAQEhdKFtDSDNdKVtDSDJdTjFbQ0gyXVtDSDJdW0NIMl1bQ0gyXTE=

> <s_epik_cmdline>
J2VwaWtfcHl0aG9uJywgJy1waHQnLCAnMi4wJywgJy1waCcsICc3LjAnLCAnLXJldGFpbl9pX2xhYicsICctcmV0YWluX3RfbGFiJywgJy10bicsICc4JywgJy1tYScsICcyMDAnLCAnLWltYWUnLCAnPGluZmlsZS5tYWU+JywgJy1vbWFlJywgJzxvdXRmaWxlLm1hZT4n

> <i_lp_orig_ion_str>
1

> <r_epik_Ionization_Penalty>
0.000347245

> <r_epik_Ionization_Penalty_Charging>
0.00034718

> <r_epik_Ionization_Penalty_Neutral>
6.52795e-08

> <r_epik_State_Penalty>
0.000210766

> <r_epik_Charging_Adjusted_Penalty>
0.000557946

> <i_epik_Tot_Q>
1

> <i_epik_Tot_abs_Q>
1

> <s_lp_Force_Field>
S-OPLS

> <r_lp_Energy>
15.3769

> <b_lp_Chiralities_Consistent>
1

> <s_lp_Variant>
ZINC000012650194-2

$$$$
ZINC000013588701
                    3D
 Schrodinger Suite 2021-4.
 18 18  0  0  1  0            999 V2000
   -0.5823    1.4447    0.0088 C   0  0  0  0  0  0
    0.0293    0.0375    0.1094 C   0  0  0  0  0  0
    1.5725    0.0019   -0.0542 C   0  0  2  0  0  0
    2.1495   -1.4140   -0.0047 C   0  0  0  0  0  0
    2.5686   -1.4703    1.3389 O   0  0  0  0  0  0
    2.6897   -0.1907    1.7902 C   0  0  0  0  0  0
    3.3412   -0.0538    2.9906 N   0  0  0  0  0  0
    2.2170    0.7049    1.0275 N   0  0  0  0  0  0
    1.8486    0.4834   -0.9942 H   0  0  0  0  0  0
   -1.6696    1.4013    0.0759 H   0  0  0  0  0  0
   -0.3284    1.9190   -0.9397 H   0  0  0  0  0  0
   -0.2291    2.0918    0.8125 H   0  0  0  0  0  0
   -0.2616   -0.4136    1.0598 H   0  0  0  0  0  0
   -0.4218   -0.5854   -0.6639 H   0  0  0  0  0  0
    1.4256   -2.1958   -0.2390 H   0  0  0  0  0  0
    3.0103   -1.5259   -0.6677 H   0  0  0  0  0  0
    3.4937    0.8617    3.3875 H   0  0  0  0  0  0
    3.6369   -0.8685    3.5077 H   0  0  0  0  0  0
  1  2  1  0  0  0
  1 10  1  0  0  0
  1 11  1  0  0  0
  1 12  1  0  0  0
  2  3  1  0  0  0
  2 13  1  0  0  0
  2 14  1  0  0  0
  3  9  1  0  0  0
  3  8  1  0  0  0
  3  4  1  0  0  0
  4  5  1  0  0  0
  4 15  1  0  0  0
  4 16  1  0  0  0
  5  6  1  0  0  0
  6  7  1  0  0  0
  6  8  2  0  0  0
  7 17  1  0  0  0
  7 18  1  0  0  0
M  END
> <s_m_source_file>
zinc_200_425_001.smi

> <i_m_source_file_index>
4

> <i_lp_mmshare_version>
56137

> <s_lp_label>
4

> <i_f3d_flags>
0

> <s_epik_input>
W0NIM11bQ0gyXVtDQEBIXTFbQ0gyXU9DKD1OMSlbTkgyXQ==

> <s_epik_cmdline>
J2VwaWtfcHl0aG9uJywgJy1waHQnLCAnMi4wJywgJy1waCcsICc3LjAnLCAnLXJldGFpbl9pX2xhYicsICctcmV0YWluX3RfbGFiJywgJy10bicsICc4JywgJy1tYScsICcyMDAnLCAnLWltYWUnLCAnPGluZmlsZS5tYWU+JywgJy1vbWFlJywgJzxvdXRmaWxlLm1hZT4n

> <i_lp_orig_ion_str>
1

> <r_epik_Ionization_Penalty>
3.32276

> <r_epik_Ionization_Penalty_Charging>
3.32276

> <r_epik_Ionization_Penalty_Neutral>
4.18882e-13

> <r_epik_State_Penalty>
3.55077

> <r_epik_Charging_Adjusted_Penalty>
6.87352

> <i_epik_Tot_Q>
0

> <i_epik_Tot_abs_Q>
0

> <s_epik_Chemistry_Notes>
This compound has an imine and may undergo hydrolysis.

> <s_lp_Force_Field>
S-OPLS

> <r_lp_Energy>
-11.6628

> <b_lp_Chiralities_Consistent>
1

> <s_lp_Variant>
ZINC000013588701-1

$$$$
